Version 4
SHEET 1 1524 680
WIRE 160 16 160 0
WIRE 400 16 160 16
WIRE 160 48 160 16
WIRE 400 64 400 16
WIRE 400 64 240 64
WIRE 656 128 240 128
WIRE 688 128 656 128
WIRE 16 176 -64 176
WIRE 656 176 656 128
WIRE 16 208 16 176
WIRE 80 208 16 208
WIRE 448 208 240 208
WIRE -64 224 -64 176
WIRE 368 240 240 240
WIRE -176 256 -176 192
WIRE 80 256 16 256
WIRE 448 256 448 208
WIRE 368 272 368 240
WIRE 80 288 48 288
WIRE 272 288 240 288
WIRE 656 320 656 256
WIRE -64 352 -64 304
WIRE 48 352 48 288
WIRE 160 352 160 304
WIRE 160 352 48 352
WIRE 160 368 160 352
WIRE -176 384 -176 336
WIRE 368 384 368 336
WIRE 400 384 368 384
WIRE 448 384 448 336
WIRE 448 384 400 384
WIRE 400 400 400 384
WIRE 272 480 272 288
WIRE 16 512 16 256
WIRE 16 512 -48 512
FLAG 160 368 0
FLAG 160 0 VCC
FLAG -176 192 VCC
FLAG -176 384 0
FLAG 400 400 0
FLAG -48 512 Vref
FLAG 688 128 output
FLAG -64 352 0
FLAG 272 480 0
FLAG 656 320 0
SYMBOL RyansParts\\TL494 160 176 R0
SYMATTR InstName U1
SYMBOL voltage -176 240 R0
WINDOW 123 0 0 Left 0
WINDOW 39 0 0 Left 0
SYMATTR InstName V1
SYMATTR Value 12
SYMBOL res 432 240 R0
SYMATTR InstName R1
SYMATTR Value 22k
SYMBOL cap 352 272 R0
WINDOW 3 -64 55 Left 2
SYMATTR InstName C1
SYMATTR Value 0.002µ
SYMBOL voltage -64 208 R0
WINDOW 123 0 0 Left 0
WINDOW 39 0 0 Left 0
SYMATTR InstName V2
SYMATTR Value 1.75
SYMBOL res 640 160 R0
SYMATTR InstName R2
SYMATTR Value 100k
TEXT -288 -80 Left 2 !.tran 0 5 0 0.000001 startup
