Version 4
SHEET 1 1552 680
WIRE 672 -256 672 -288
WIRE 960 -160 960 -240
WIRE 912 -144 768 -144
WIRE 672 -80 672 -176
WIRE 672 -80 544 -80
WIRE 768 -80 768 -144
WIRE 768 -80 672 -80
WIRE 960 -64 960 -80
WIRE 160 16 160 0
WIRE 400 16 160 16
WIRE 960 16 960 -64
WIRE 1104 16 960 16
WIRE 1280 16 1184 16
WIRE 160 48 160 16
WIRE 320 64 240 64
WIRE 400 64 400 16
WIRE 400 64 320 64
WIRE 320 96 320 64
WIRE 320 96 240 96
WIRE 1280 112 1280 16
WIRE 1312 112 1280 112
WIRE 1488 112 1392 112
WIRE 400 128 240 128
WIRE 544 128 544 -80
WIRE 544 128 400 128
WIRE -400 160 -400 128
WIRE -400 160 -544 160
WIRE 416 160 240 160
WIRE 544 160 416 160
WIRE 1104 160 960 160
WIRE 1280 160 1280 112
WIRE 1280 160 1184 160
WIRE 16 176 -64 176
WIRE -544 192 -544 160
WIRE -400 192 -400 160
WIRE 960 192 960 160
WIRE 16 208 16 176
WIRE 80 208 16 208
WIRE 448 208 240 208
WIRE -64 224 -64 176
WIRE 368 240 240 240
WIRE 80 256 16 256
WIRE 448 256 448 208
WIRE 368 272 368 240
WIRE 544 272 544 160
WIRE 672 272 544 272
WIRE 912 272 672 272
WIRE -544 288 -544 256
WIRE -400 288 -400 272
WIRE -400 288 -544 288
WIRE 16 288 16 256
WIRE 80 288 16 288
WIRE 272 288 240 288
WIRE -400 320 -400 288
WIRE 960 336 960 288
WIRE -64 352 -64 304
WIRE 672 352 672 272
WIRE 160 368 160 304
WIRE 368 384 368 336
WIRE 400 384 368 384
WIRE 448 384 448 336
WIRE 448 384 400 384
WIRE 400 400 400 384
WIRE 272 480 272 288
WIRE 16 512 16 288
WIRE 16 512 -48 512
WIRE 672 544 672 432
FLAG 160 368 0
FLAG 160 0 VCC
FLAG -400 128 VCC
FLAG -400 320 0
FLAG 400 400 0
FLAG -48 512 Vref
FLAG -64 352 0
FLAG 272 480 0
FLAG 672 -288 0
FLAG 416 160 Output2
FLAG 400 128 Output1
FLAG 672 544 0
FLAG 960 336 0
FLAG 1488 112 VCC
FLAG 960 -240 0
SYMBOL RyansParts\\TL494 160 176 R0
SYMATTR InstName U1
SYMBOL voltage -400 176 R0
WINDOW 123 0 0 Left 0
WINDOW 39 0 0 Left 0
SYMATTR InstName V1
SYMATTR Value 12
SYMBOL res 432 240 R0
SYMATTR InstName R1
SYMATTR Value 9091
SYMBOL voltage -64 208 R0
WINDOW 123 0 0 Left 0
WINDOW 39 0 0 Left 0
SYMATTR InstName V2
SYMATTR Value 1.75
SYMBOL res 688 -160 R180
WINDOW 0 36 76 Left 2
WINDOW 3 36 40 Left 2
SYMATTR InstName R2
SYMATTR Value 1Meg
SYMBOL cap 352 272 R0
SYMATTR InstName C1
SYMATTR Value 2.2µ
SYMBOL nmos 912 -64 M180
SYMATTR InstName M1
SYMATTR Value IRFH5250
SYMBOL res 688 448 R180
WINDOW 0 36 76 Left 2
WINDOW 3 36 40 Left 2
SYMATTR InstName R4
SYMATTR Value 1Meg
SYMBOL nmos 912 192 R0
SYMATTR InstName M2
SYMATTR Value IRFH5250
SYMBOL res 1200 0 R90
WINDOW 0 0 56 VBottom 2
WINDOW 3 32 56 VTop 2
SYMATTR InstName R3
SYMATTR Value 100
SYMBOL res 1200 144 R90
WINDOW 0 0 56 VBottom 2
WINDOW 3 32 56 VTop 2
SYMATTR InstName R5
SYMATTR Value 100
SYMBOL res 1408 96 R90
WINDOW 0 0 56 VBottom 2
WINDOW 3 32 56 VTop 2
SYMATTR InstName R6
SYMATTR Value 0.1
SYMBOL cap -560 192 R0
SYMATTR InstName C2
SYMATTR Value 0.1µ
TEXT -288 -80 Left 2 !.tran 0 0.25 0 0.001 startup
