Version 4
SHEET 1 1524 680
WIRE 880 -112 880 -176
WIRE 160 16 160 0
WIRE 400 16 160 16
WIRE 160 48 160 16
WIRE 880 48 880 -32
WIRE 320 64 240 64
WIRE 400 64 400 16
WIRE 400 64 320 64
WIRE 320 96 320 64
WIRE 320 96 240 96
WIRE 656 128 240 128
WIRE 832 128 656 128
WIRE 352 160 240 160
WIRE 16 176 -64 176
WIRE 656 176 656 128
WIRE 16 208 16 176
WIRE 80 208 16 208
WIRE 448 208 240 208
WIRE -64 224 -64 176
WIRE 368 240 240 240
WIRE 880 240 880 144
WIRE -176 256 -176 192
WIRE 80 256 16 256
WIRE 448 256 448 208
WIRE 368 272 368 240
WIRE 16 288 16 256
WIRE 80 288 16 288
WIRE 272 288 240 288
WIRE 656 320 656 256
WIRE -64 352 -64 304
WIRE 160 368 160 304
WIRE -176 384 -176 336
WIRE 368 384 368 336
WIRE 400 384 368 384
WIRE 448 384 448 336
WIRE 448 384 400 384
WIRE 400 400 400 384
WIRE 272 480 272 288
WIRE 16 512 16 288
WIRE 16 512 -48 512
FLAG 160 368 0
FLAG 160 0 VCC
FLAG -176 192 VCC
FLAG -176 384 0
FLAG 400 400 0
FLAG -48 512 Vref
FLAG -64 352 0
FLAG 272 480 0
FLAG 656 320 0
FLAG 880 240 0
FLAG 880 -176 VCC
FLAG 368 160 Output2
FLAG 656 128 Output1
SYMBOL RyansParts\\TL494 160 176 R0
SYMATTR InstName U1
SYMBOL voltage -176 240 R0
WINDOW 123 0 0 Left 0
WINDOW 39 0 0 Left 0
SYMATTR InstName V1
SYMATTR Value 12
SYMBOL res 432 240 R0
SYMATTR InstName R1
SYMATTR Value 9091
SYMBOL voltage -64 208 R0
WINDOW 123 0 0 Left 0
WINDOW 39 0 0 Left 0
SYMATTR InstName V2
SYMATTR Value 1.75
SYMBOL res 640 160 R0
SYMATTR InstName R2
SYMATTR Value 100k
SYMBOL cap 352 272 R0
SYMATTR InstName C1
SYMATTR Value 2.2µ
SYMBOL nmos 832 48 R0
SYMATTR InstName M1
SYMATTR Value IRFH5250
SYMBOL res 864 -128 R0
SYMATTR InstName R3
SYMATTR Value 100
TEXT -288 -80 Left 2 !.tran 0 0.25 0 0.001 startup
