Version 4
SHEET 1 1524 680
WIRE 160 16 160 0
WIRE 400 16 160 16
WIRE -160 48 -160 16
WIRE 160 48 160 16
WIRE 400 64 400 16
WIRE 400 64 240 64
WIRE -336 128 -336 64
WIRE -48 128 -160 128
WIRE 512 128 240 128
WIRE -160 144 -160 128
WIRE -48 208 -48 128
WIRE 80 208 -48 208
WIRE 448 208 240 208
WIRE -160 240 -160 224
WIRE 368 240 240 240
WIRE -336 256 -336 208
WIRE 80 256 16 256
WIRE 448 256 448 208
WIRE 368 272 368 240
WIRE 80 288 32 288
WIRE 272 288 240 288
WIRE 32 336 32 288
WIRE 160 336 160 304
WIRE 160 336 32 336
WIRE 160 368 160 336
WIRE 368 384 368 336
WIRE 400 384 368 384
WIRE 448 384 448 336
WIRE 448 384 400 384
WIRE 400 400 400 384
WIRE 16 512 16 256
WIRE 16 512 -48 512
WIRE 176 512 16 512
WIRE 272 512 272 288
WIRE 272 656 272 592
FLAG 160 368 0
FLAG 160 0 VCC
FLAG -336 64 VCC
FLAG -336 256 0
FLAG 400 400 0
FLAG -48 512 Vref
FLAG -160 16 Vref
FLAG -160 240 0
FLAG 272 656 0
FLAG 512 128 output
SYMBOL RyansParts\\TL494 160 176 R0
SYMATTR InstName U1
SYMBOL voltage -336 112 R0
WINDOW 123 0 0 Left 0
WINDOW 39 0 0 Left 0
SYMATTR InstName V1
SYMATTR Value 12
SYMBOL res 432 240 R0
SYMATTR InstName R1
SYMATTR Value 22k
SYMBOL cap 352 272 R0
WINDOW 3 -64 55 Left 2
SYMATTR InstName C1
SYMATTR Value 0.002µ
SYMBOL res -176 32 R0
SYMATTR InstName R4
SYMATTR Value 50k
SYMBOL res -176 128 R0
SYMATTR InstName R5
SYMATTR Value 50k
SYMBOL voltage 272 496 R0
WINDOW 123 0 0 Left 0
WINDOW 39 0 0 Left 0
SYMATTR InstName V2
SYMATTR Value 1.65
TEXT -288 -80 Left 2 !.tran 0 5 0 0.00001 startup
