Version 4
SHEET 1 1524 680
WIRE 160 -192 -48 -192
WIRE -48 -128 -48 -192
WIRE 160 -64 160 -192
WIRE 336 -64 160 -64
WIRE 464 -64 336 -64
WIRE 464 -32 464 -64
WIRE 336 -16 336 -64
WIRE -48 0 -48 -48
WIRE 160 48 160 -64
WIRE 80 64 16 64
WIRE 336 64 240 64
WIRE 544 64 336 64
WIRE 80 96 -32 96
WIRE 464 96 464 48
WIRE 464 96 240 96
WIRE 544 96 464 96
WIRE 16 128 16 64
WIRE 80 128 16 128
WIRE 272 128 240 128
WIRE -32 160 -32 96
WIRE -32 160 -112 160
WIRE 80 160 -32 160
WIRE 272 160 272 128
WIRE 272 160 240 160
WIRE -112 176 -112 160
WIRE 16 176 16 128
WIRE 272 176 272 160
WIRE 80 208 -48 208
WIRE 416 208 240 208
WIRE 416 224 416 208
WIRE 352 240 240 240
WIRE 80 256 32 256
WIRE 352 256 352 240
WIRE -112 288 -112 256
WIRE 32 288 32 256
WIRE 32 288 -112 288
WIRE 80 288 32 288
WIRE 256 288 240 288
WIRE 416 320 416 304
WIRE 416 320 352 320
WIRE 416 336 416 320
WIRE 160 368 160 304
WIRE 256 368 256 288
WIRE 544 368 256 368
WIRE -48 400 -48 208
WIRE 528 400 -48 400
FLAG 160 368 0
FLAG 528 400 feedback
FLAG 544 368 DTC
FLAG 416 336 0
FLAG 544 64 output_1
FLAG 544 96 output_2
FLAG 16 176 0
FLAG -48 0 0
FLAG 272 176 0
SYMBOL RyansParts\\TL494 160 176 R0
SYMATTR InstName U1
SYMBOL res 400 208 R0
SYMATTR InstName R1
SYMATTR Value 12k
SYMBOL cap 336 256 R0
WINDOW 3 -47 53 Left 2
SYMATTR InstName C1
SYMATTR Value 0.01µ
SYMBOL res -128 160 R0
WINDOW 0 -33 33 Left 2
WINDOW 3 -51 74 Left 2
SYMATTR InstName R2
SYMATTR Value 50k
SYMBOL res 320 -32 R0
SYMATTR InstName R3
SYMATTR Value 150
SYMBOL res 448 -48 R0
SYMATTR InstName R4
SYMATTR Value 150
SYMBOL voltage -48 -144 R0
WINDOW 123 0 0 Left 0
WINDOW 39 0 0 Left 0
SYMATTR InstName V1
SYMATTR Value 15
TEXT -112 504 Left 2 !.tran 0 0.01 0 0.00001 startup
